network/quebec_main_island.m
function mpc = quebec_main_island
%% Exported from PyPSA network elec_solved.nc, snapshot 2022-01-04 07:00:00
%% Total load: 33907.5 MW, total generation (incl. storage): 34416.0 MW
%% Generator Qmax/Qmin are a generic assumption (not measured) -- see script docstring.

mpc.version = '2';

mpc.baseMVA = 100.0;

%% bus data
%	bus_i	type	Pd	Qd	Gs	Bs	area	Vm	Va	baseKV	zone	Vmax	Vmin
mpc.bus = [
	1	1	101.391	33.3256	0	0	1	1	-404.393	765	1	1.05	0.95;
	2	1	0.0190993	0.00627764	0	0	1	1	-379.923	735	1	1.05	0.95;
	3	1	1.60381	0.527146	0	0	1	1	-386.413	315	1	1.05	0.95;
	4	1	21.0609	6.92237	0	0	1	1	-432.982	315	1	1.05	0.95;
	5	1	2.9659	0.974844	0	0	1	1	-447.147	315	1	1.05	0.95;
	6	1	28.6102	9.40373	0	0	1	1	-401.032	735	1	1.05	0.95;
	7	1	5.20421	1.71054	0	0	1	1	-393.55	735	1	1.05	0.95;
	8	1	60.7422	19.965	0	0	1	1	-400.019	735	1	1.05	0.95;
	9	2	1.26419	0.415519	0	0	1	1	-186.399	315	1	1.05	0.95;
	10	2	0.124448	0.0409041	0	0	1	1	-379.618	315	1	1.05	0.95;
	11	1	487.495	160.232	0	0	1	1	-397.986	735	1	1.05	0.95;
	12	1	0	0	0	0	1	1	-261.999	735	1	1.05	0.95;
	13	2	1.40795	0.462772	0	0	1	1	-386.461	315	1	1.05	0.95;
	14	1	28.2594	9.28843	0	0	1	1	-396.548	315	1	1.05	0.95;
	15	1	0	0	0	0	1	1	-56.8565	735	1	1.05	0.95;
	16	1	0.133804	0.0439793	0	0	1	1	-392.817	315	1	1.05	0.95;
	17	1	212.741	69.9246	0	0	1	1	-405.185	315	1	1.05	0.95;
	18	1	465.388	152.966	0	0	1	1	-403.147	315	1	1.05	0.95;
	19	1	237.718	78.1341	0	0	1	1	-398.826	735	1	1.05	0.95;
	20	1	4.65561	1.53023	0	0	1	1	-434.337	315	1	1.05	0.95;
	21	1	0.0538462	0.0176984	0	0	1	1	-386.312	315	1	1.05	0.95;
	22	1	176.882	58.1382	0	0	1	1	-327.983	735	1	1.05	0.95;
	23	1	602.882	198.158	0	0	1	1	-394.603	315	1	1.05	0.95;
	24	1	0.19068	0.0626734	0	0	1	1	-396.456	315	1	1.05	0.95;
	25	1	0.450689	0.148134	0	0	1	1	-379.636	315	1	1.05	0.95;
	26	1	123.729	40.6678	0	0	1	1	-402.804	735	1	1.05	0.95;
	27	1	1159.75	381.191	0	0	1	1	-411.765	315	1	1.05	0.95;
	28	2	12.2682	4.03237	0	0	1	1	-168.783	315	1	1.05	0.95;
	29	1	1.96803	0.64686	0	0	1	1	-386.24	315	1	1.05	0.95;
	30	1	61.4966	20.213	0	0	1	1	-435.087	315	1	1.05	0.95;
	31	1	0.360462	0.118478	0	0	1	1	-268.915	315	1	1.05	0.95;
	32	2	2.94658	0.968495	0	0	1	1	-379.651	315	1	1.05	0.95;
	33	1	74.3438	24.4356	0	0	1	1	-400.814	735	1	1.05	0.95;
	34	1	198.29	65.1746	0	0	1	1	-393.94	315	1	1.05	0.95;
	35	1	381.623	125.433	0	0	1	1	-404.922	735	1	1.05	0.95;
	36	1	200.514	65.9059	0	0	1	1	-401.637	735	1	1.05	0.95;
	37	1	0.0267725	0.00879969	0	0	1	1	-379.617	315	1	1.05	0.95;
	38	1	149.222	49.0468	0	0	1	1	-402.893	315	1	1.05	0.95;
	39	1	0	0	0	0	1	1	-379.599	735	1	1.05	0.95;
	40	1	44.6654	14.6808	0	0	1	1	-401.567	315	1	1.05	0.95;
	41	1	0	0	0	0	1	1	-382.597	735	1	1.05	0.95;
	42	1	4.33759	1.4257	0	0	1	1	-408.202	315	1	1.05	0.95;
	43	1	42.7797	14.061	0	0	1	1	-432.202	315	1	1.05	0.95;
	44	1	110.819	36.4244	0	0	1	1	-396.992	315	1	1.05	0.95;
	45	1	69.7777	22.9348	0	0	1	1	-395.78	315	1	1.05	0.95;
	46	1	0.55343	0.181904	0	0	1	1	-17.9074	315	1	1.05	0.95;
	47	2	1.50706	0.495346	0	0	1	1	-396.654	315	1	1.05	0.95;
	48	1	282.815	92.9569	0	0	1	1	-410.05	315	1	1.05	0.95;
	49	2	1.06535	0.350163	0	0	1	1	-379.625	315	1	1.05	0.95;
	50	1	288.815	94.9289	0	0	1	1	-405.628	315	1	1.05	0.95;
	51	1	1.0285	0.338052	0	0	1	1	-379.647	315	1	1.05	0.95;
	52	1	55.9342	18.3847	0	0	1	1	-405.78	315	1	1.05	0.95;
	53	1	467.911	153.795	0	0	1	1	-405.102	735	1	1.05	0.95;
	54	2	0.0788164	0.0259057	0	0	1	1	-386.855	315	1	1.05	0.95;
	55	1	1.66209	0.546304	0	0	1	1	-447.595	315	1	1.05	0.95;
	56	1	103.555	34.037	0	0	1	1	-405.781	315	1	1.05	0.95;
	57	1	7.44053	2.44558	0	0	1	1	-401.98	315	1	1.05	0.95;
	58	1	16.7422	5.5029	0	0	1	1	-432.724	315	1	1.05	0.95;
	59	1	1727.36	567.755	0	0	1	1	-339.156	735	1	1.05	0.95;
	60	1	0	0	0	0	1	1	-398.334	735	1	1.05	0.95;
	61	1	25.2462	8.29802	0	0	1	1	-396.801	315	1	1.05	0.95;
	62	1	1303.43	428.417	0	0	1	1	-382.818	735	1	1.05	0.95;
	63	1	360.179	118.385	0	0	1	1	-408.901	315	1	1.05	0.95;
	64	1	0.456152	0.14993	0	0	1	1	-264.215	315	1	1.05	0.95;
	65	1	32.5146	10.687	0	0	1	1	-433.689	315	1	1.05	0.95;
	66	1	0.729157	0.239662	0	0	1	1	-447.868	315	1	1.05	0.95;
	67	2	4.07507	1.33941	0	0	1	1	-168.032	315	1	1.05	0.95;
	68	1	40.5714	13.3352	0	0	1	1	-395.976	735	1	1.05	0.95;
	69	1	0	0	0	0	1	1	-417.311	345	1	1.05	0.95;
	70	3	5.02237	1.65077	0	0	1	1	0	315	1	1.05	0.95;
	71	1	49.8826	16.3956	0	0	1	1	-397.683	315	1	1.05	0.95;
	72	1	452.658	148.781	0	0	1	1	-405.402	315	1	1.05	0.95;
	73	1	370.437	121.757	0	0	1	1	-404.96	315	1	1.05	0.95;
	74	2	50.5106	16.602	0	0	1	1	-398.238	315	1	1.05	0.95;
	75	1	24.8029	8.15232	0	0	1	1	-435.029	315	1	1.05	0.95;
	76	1	156.406	51.4081	0	0	1	1	-387.266	315	1	1.05	0.95;
	77	1	41.5488	13.6564	0	0	1	1	-410.718	315	1	1.05	0.95;
	78	1	2.00231	0.658129	0	0	1	1	-264.339	735	1	1.05	0.95;
	79	1	370.635	121.822	0	0	1	1	-400.059	735	1	1.05	0.95;
	80	2	24.8049	8.15296	0	0	1	1	-388.088	315	1	1.05	0.95;
	81	1	8.5561	2.81226	0	0	1	1	-408.06	315	1	1.05	0.95;
	82	1	4.3157	1.4185	0	0	1	1	-407.501	315	1	1.05	0.95;
	83	1	66.2375	21.7712	0	0	1	1	-398.864	315	1	1.05	0.95;
	84	1	0	0	0	0	1	1	-386.818	735	1	1.05	0.95;
	85	1	17.4851	5.74706	0	0	1	1	-414.489	315	1	1.05	0.95;
	86	1	19.4553	6.39464	0	0	1	1	-426.221	315	1	1.05	0.95;
	87	1	9.58633	3.15087	0	0	1	1	-407.543	315	1	1.05	0.95;
	88	1	1.22763	0.403501	0	0	1	1	-405.146	315	1	1.05	0.95;
	89	1	441.571	145.137	0	0	1	1	-442.874	315	1	1.05	0.95;
	90	1	24.0058	7.89032	0	0	1	1	-395.163	735	1	1.05	0.95;
	91	1	677.756	222.768	0	0	1	1	-311.185	315	1	1.05	0.95;
	92	2	0.172001	0.056534	0	0	1	1	-394.791	315	1	1.05	0.95;
	93	1	109.505	35.9927	0	0	1	1	-393.64	315	1	1.05	0.95;
	94	1	7.07412	2.32515	0	0	1	1	-434.635	315	1	1.05	0.95;
	95	1	229.482	75.4269	0	0	1	1	-413.289	315	1	1.05	0.95;
	96	1	526.01	172.891	0	0	1	1	-405.298	735	1	1.05	0.95;
	97	1	28.2756	9.29373	0	0	1	1	-416.516	315	1	1.05	0.95;
	98	2	147.372	48.4389	0	0	1	1	-386.526	735	1	1.05	0.95;
	99	1	1.62668	0.534665	0	0	1	1	-168.418	315	1	1.05	0.95;
	100	1	88.6402	29.1346	0	0	1	1	-405.426	315	1	1.05	0.95;
	101	1	60.3944	19.8507	0	0	1	1	-405.423	735	1	1.05	0.95;
	102	1	11.7632	3.86639	0	0	1	1	-442.418	315	1	1.05	0.95;
	103	2	0.347923	0.114357	0	0	1	1	-379.618	315	1	1.05	0.95;
	104	1	84.3267	27.7168	0	0	1	1	-390.016	735	1	1.05	0.95;
	105	1	237.051	77.9147	0	0	1	1	-400.702	735	1	1.05	0.95;
	106	1	66.6334	21.9013	0	0	1	1	-424.211	315	1	1.05	0.95;
	107	1	0.33229	0.109218	0	0	1	1	-275.368	315	1	1.05	0.95;
	108	1	17.2106	5.65686	0	0	1	1	-415.477	315	1	1.05	0.95;
	109	1	84.4979	27.7731	0	0	1	1	-395.254	315	1	1.05	0.95;
	110	1	16.8292	5.5315	0	0	1	1	-402.476	315	1	1.05	0.95;
	111	1	141.25	46.4265	0	0	1	1	-402.044	735	1	1.05	0.95;
	112	1	0.165008	0.0542354	0	0	1	1	-389.315	315	1	1.05	0.95;
	113	1	41.9789	13.7978	0	0	1	1	-408.272	315	1	1.05	0.95;
	114	1	798.728	262.529	0	0	1	1	-406.427	765	1	1.05	0.95;
	115	1	0	0	0	0	1	1	-186.329	735	1	1.05	0.95;
	116	1	0.506249	0.166396	0	0	1	1	-280.217	315	1	1.05	0.95;
	117	1	7.31197	2.40333	0	0	1	1	-388	315	1	1.05	0.95;
	118	1	0.682227	0.224237	0	0	1	1	-407.566	315	1	1.05	0.95;
	119	1	0.126029	0.0414238	0	0	1	1	-379.624	315	1	1.05	0.95;
	120	2	1.65323	0.543391	0	0	1	1	-384.939	315	1	1.05	0.95;
	121	1	88.7046	29.1558	0	0	1	1	-403.285	315	1	1.05	0.95;
	122	1	63.2009	20.7731	0	0	1	1	-392.492	315	1	1.05	0.95;
	123	2	0.135476	0.0445288	0	0	1	1	-386.313	315	1	1.05	0.95;
	124	1	2984.06	980.814	0	0	1	1	-419.061	315	1	1.05	0.95;
	125	1	35.8192	11.7732	0	0	1	1	-398.357	315	1	1.05	0.95;
	126	1	666.976	219.224	0	0	1	1	-407.559	315	1	1.05	0.95;
	127	1	23.9535	7.87314	0	0	1	1	-403.972	315	1	1.05	0.95;
	128	1	49.7993	16.3682	0	0	1	1	-417.284	315	1	1.05	0.95;
	129	2	0.657412	0.216081	0	0	1	1	-186.355	315	1	1.05	0.95;
	130	1	4.27727	1.40587	0	0	1	1	-416.32	315	1	1.05	0.95;
	131	1	18.5776	6.10615	0	0	1	1	-430.222	315	1	1.05	0.95;
	132	1	15.4274	5.07073	0	0	1	1	-384.901	315	1	1.05	0.95;
	133	1	969.601	318.692	0	0	1	1	-383.722	735	1	1.05	0.95;
	134	1	104.497	34.3466	0	0	1	1	-449.641	315	1	1.05	0.95;
	135	1	533.154	175.239	0	0	1	1	-405.591	735	1	1.05	0.95;
	136	1	15.2129	5.00023	0	0	1	1	-267.487	735	1	1.05	0.95;
	137	2	7.59653	2.49686	0	0	1	1	-138.022	735	1	1.05	0.95;
	138	1	10.7767	3.54213	0	0	1	1	-402.887	315	1	1.05	0.95;
	139	2	0.791691	0.260216	0	0	1	1	-386.468	315	1	1.05	0.95;
	140	1	0	0	0	0	1	1	-58.1618	735	1	1.05	0.95;
	141	2	6.91272	2.2721	0	0	1	1	-168.851	315	1	1.05	0.95;
	142	1	39.9298	13.1243	0	0	1	1	-390.474	735	1	1.05	0.95;
	143	1	10.6475	3.49966	0	0	1	1	-401.563	315	1	1.05	0.95;
	144	1	116.354	38.2437	0	0	1	1	-400.401	735	1	1.05	0.95;
	145	1	74.0931	24.3532	0	0	1	1	-393.759	315	1	1.05	0.95;
	146	2	9.96133	3.27413	0	0	1	1	-387.861	315	1	1.05	0.95;
	147	1	456.196	149.944	0	0	1	1	-406.45	315	1	1.05	0.95;
	148	1	6.72463	2.21028	0	0	1	1	-399.588	735	1	1.05	0.95;
	149	1	12.8931	4.23777	0	0	1	1	-413.536	315	1	1.05	0.95;
	150	1	0.829227	0.272554	0	0	1	1	-198.43	735	1	1.05	0.95;
	151	1	94.0791	30.9223	0	0	1	1	-300.326	315	1	1.05	0.95;
	152	1	5.82867	1.91579	0	0	1	1	-448.035	315	1	1.05	0.95;
	153	1	4325.44	1421.7	0	0	1	1	-416.978	315	1	1.05	0.95;
	154	1	81.2185	26.6952	0	0	1	1	-399.132	735	1	1.05	0.95;
	155	2	3.77536	1.2409	0	0	1	1	-17.9466	315	1	1.05	0.95;
	156	1	22.3377	7.34203	0	0	1	1	-387.772	315	1	1.05	0.95;
	157	1	29.1441	9.57921	0	0	1	1	-403.437	315	1	1.05	0.95;
	158	1	0.0999087	0.0328384	0	0	1	1	-395.746	315	1	1.05	0.95;
	159	1	0.510588	0.167822	0	0	1	1	-447.737	315	1	1.05	0.95;
	160	1	0	0	0	0	1	1	-398.427	735	1	1.05	0.95;
	161	1	25.632	8.42482	0	0	1	1	-394.817	315	1	1.05	0.95;
	162	1	18.0506	5.93294	0	0	1	1	-394.663	315	1	1.05	0.95;
	163	1	11.9533	3.92886	0	0	1	1	-404.461	315	1	1.05	0.95;
	164	1	43.0002	14.1335	0	0	1	1	-421.786	315	1	1.05	0.95;
	165	1	59.0817	19.4192	0	0	1	1	-397.229	315	1	1.05	0.95;
	166	1	179.596	59.0305	0	0	1	1	-404.543	315	1	1.05	0.95;
	167	1	522.932	171.88	0	0	1	1	-395.805	315	1	1.05	0.95;
	168	1	0.637666	0.209591	0	0	1	1	-386.429	315	1	1.05	0.95;
	169	1	9.51864	3.12862	0	0	1	1	-417.319	345	1	1.05	0.95;
	170	1	3356.26	1103.15	0	0	1	1	-409.734	315	1	1.05	0.95;
	171	1	88.7768	29.1795	0	0	1	1	-434.947	315	1	1.05	0.95;
	172	1	10.0052	3.28855	0	0	1	1	-399.042	315	1	1.05	0.95;
	173	1	0	0	0	0	1	1	-390.666	735	1	1.05	0.95;
	174	1	24.8724	8.17516	0	0	1	1	-434.117	315	1	1.05	0.95;
	175	1	254.36	83.6039	0	0	1	1	-405.501	735	1	1.05	0.95;
	176	1	0	0	0	0	1	1	-385.324	735	1	1.05	0.95;
	177	2	5.56004	1.8275	0	0	1	1	-168.422	315	1	1.05	0.95;
	178	1	90.7079	29.8143	0	0	1	1	-411.933	315	1	1.05	0.95;
	179	1	1.83203	0.60216	0	0	1	1	-167.874	735	1	1.05	0.95;
	180	1	251.631	82.7072	0	0	1	1	-401.184	315	1	1.05	0.95;
	181	1	0	0	0	0	1	1	-167.944	735	1	1.05	0.95;
	182	1	1111.6	365.366	0	0	1	1	-409.126	315	1	1.05	0.95;
	183	1	153.94	50.5976	0	0	1	1	-394.799	735	1	1.05	0.95;
	184	1	97.7845	32.1402	0	0	1	1	-391.153	735	1	1.05	0.95;
	185	1	0.844225	0.277483	0	0	1	1	-402.741	735	1	1.05	0.95;
	186	1	0.698552	0.229603	0	0	1	1	-186.336	315	1	1.05	0.95;
	187	1	0	0	0	0	1	1	-401.814	735	1	1.05	0.95;
	188	1	79.7326	26.2068	0	0	1	1	-400.811	315	1	1.05	0.95;
	189	1	17.7304	5.8277	0	0	1	1	-360.242	735	1	1.05	0.95;
	190	1	11.4344	3.75831	0	0	1	1	-392.263	735	1	1.05	0.95;
	191	1	12.2987	4.04238	0	0	1	1	-407.51	315	1	1.05	0.95;
	192	1	0.211202	0.0694187	0	0	1	1	-397.901	315	1	1.05	0.95;
	193	2	3.60821	1.18596	0	0	1	1	-434.445	315	1	1.05	0.95;
	194	1	581.424	191.105	0	0	1	1	-439.376	315	1	1.05	0.95;
	195	1	148.867	48.9303	0	0	1	1	-395.675	735	1	1.05	0.95;
	196	1	0	0	0	0	1	1	-386.137	735	1	1.05	0.95;
	197	1	51.4228	16.9019	0	0	1	1	-434.759	315	1	1.05	0.95;
	198	2	11.2869	3.70983	0	0	1	1	-384.752	735	1	1.05	0.95;
	199	2	0.414523	0.136247	0	0	1	1	-386.312	315	1	1.05	0.95;
	200	1	446.882	146.883	0	0	1	1	-404.729	315	1	1.05	0.95;
];

%% generator data
%	bus	Pg	Qg	Qmax	Qmin	Vg	mBase	status	Pmax	Pmin	Pc1	Pc2	Qc1min	Qc1max	Qc2min	Qc2max	ramp_agc	ramp_10	ramp_30	ramp_q	apf
mpc.gen = [
	18	1696.58	0	1155.2	-1155.2	1	1864	1	1864	0	0	0	0	0	0	0	0	0	0	0	0;
	44	245.749	0	167.331	-167.331	1	270	1	270	0	0	0	0	0	0	0	0	0	0	0	0;
	92	34.1489	0	523.684	-523.684	1	845	1	845	0	0	0	0	0	0	0	0	0	0	0	0;
	147	693.557	0	472.245	-472.245	1	762	1	762	0	0	0	0	0	0	0	0	0	0	0	0;
	74	209.341	0	142.541	-142.541	1	230	1	230	0	0	0	0	0	0	0	0	0	0	0	0;
	83	112.862	0	76.8483	-76.8483	1	124	1	124	0	0	0	0	0	0	0	0	0	0	0	0;
	155	0	0	889.953	-889.953	1	1436	1	1436	0	0	0	0	0	0	0	0	0	0	0	0;
	44	261.222	0	177.867	-177.867	1	287	1	287	0	0	0	0	0	0	0	0	0	0	0	0;
	28	-0	0	197.698	-197.698	1	319	1	319	0	0	0	0	0	0	0	0	0	0	0	0;
	18	102.85	0	70.0311	-70.0311	1	113	1	113	0	0	0	0	0	0	0	0	0	0	0	0;
	10	1206.9	0	821.781	-821.781	1	1326	1	1326	0	0	0	0	0	0	0	0	0	0	0	0;
	199	1118.61	0	761.666	-761.666	1	1229	1	1229	0	0	0	0	0	0	0	0	0	0	0	0;
	54	-0	0	114.033	-114.033	1	184	1	184	0	0	0	0	0	0	0	0	0	0	0	0;
	54	-0	0	145.64	-145.64	1	235	1	235	0	0	0	0	0	0	0	0	0	0	0	0;
	123	933.845	0	635.858	-635.858	1	1026	1	1026	0	0	0	0	0	0	0	0	0	0	0	0;
	54	-0	0	324.126	-324.126	1	523	1	523	0	0	0	0	0	0	0	0	0	0	0	0;
	134	-0	0	238.602	-238.602	1	385	1	385	0	0	0	0	0	0	0	0	0	0	0	0;
	91	112.862	0	76.8483	-76.8483	1	124	1	124	0	0	0	0	0	0	0	0	0	0	0	0;
	91	160.192	0	109.075	-109.075	1	176	1	176	0	0	0	0	0	0	0	0	0	0	0	0;
	91	101.03	0	68.7916	-68.7916	1	111	1	111	0	0	0	0	0	0	0	0	0	0	0	0;
	80	0	0	167.331	-167.331	1	270	1	270	0	0	0	0	0	0	0	0	0	0	0	0;
	9	-0	0	92.9617	-92.9617	1	150	1	150	0	0	0	0	0	0	0	0	0	0	0	0;
	74	167.473	0	114.033	-114.033	1	184	1	184	0	0	0	0	0	0	0	0	0	0	0	0;
	74	182.036	0	123.949	-123.949	1	200	1	200	0	0	0	0	0	0	0	0	0	0	0	0;
	22	274.874	0	187.163	-187.163	1	302	1	302	0	0	0	0	0	0	0	0	0	0	0	0;
	165	-0	0	254.715	-254.715	1	411	1	411	0	0	0	0	0	0	0	0	0	0	0	0;
	89	11.1105	0	229.223	-229.223	1	369.866	1	369.866	0	0	0	0	0	0	0	0	0	0	0	0;
	171	19.2009	0	196.476	-196.476	1	317.028	1	317.028	0	0	0	0	0	0	0	0	0	0	0	0;
	106	-0	0	146.866	-146.866	1	236.979	1	236.979	0	0	0	0	0	0	0	0	0	0	0	0;
	198	74.3306	0	138.516	-138.516	1	223.505	1	223.505	0	0	0	0	0	0	0	0	0	0	0	0;
	79	165.753	0	102.724	-102.724	1	165.753	1	165.753	0	0	0	0	0	0	0	0	0	0	0	0;
	63	11.1746	0	98.2382	-98.2382	1	158.514	1	158.514	0	0	0	0	0	0	0	0	0	0	0	0;
	30	18.8478	0	97.747	-97.747	1	157.722	1	157.722	0	0	0	0	0	0	0	0	0	0	0	0;
	79	16.21	0	96.4045	-96.4045	1	155.555	1	155.555	0	0	0	0	0	0	0	0	0	0	0	0;
	73	-0	0	92.082	-92.082	1	148.581	1	148.581	0	0	0	0	0	0	0	0	0	0	0	0;
	193	17.1086	0	90.7721	-90.7721	1	146.467	1	146.467	0	0	0	0	0	0	0	0	0	0	0	0;
	171	5.46035	0	87.301	-87.301	1	140.866	1	140.866	0	0	0	0	0	0	0	0	0	0	0	0;
	73	-0	0	85.9257	-85.9257	1	138.647	1	138.647	0	0	0	0	0	0	0	0	0	0	0	0;
	171	2.86083	0	71.7139	-71.7139	1	115.715	1	115.715	0	0	0	0	0	0	0	0	0	0	0	0;
	72	11.2799	0	66.2781	-66.2781	1	106.944	1	106.944	0	0	0	0	0	0	0	0	0	0	0	0;
	197	11.2547	0	66.1798	-66.1798	1	106.786	1	106.786	0	0	0	0	0	0	0	0	0	0	0	0;
	80	42.1411	0	65.8196	-65.8196	1	106.204	1	106.204	0	0	0	0	0	0	0	0	0	0	0	0;
	132	15.4712	0	65.8196	-65.8196	1	106.204	1	106.204	0	0	0	0	0	0	0	0	0	0	0	0;
	19	10.0363	0	65.4922	-65.4922	1	105.676	1	105.676	0	0	0	0	0	0	0	0	0	0	0	0;
	193	9.23323	0	48.9881	-48.9881	1	79.0457	1	79.0457	0	0	0	0	0	0	0	0	0	0	0	0;
	73	-0	0	44.4692	-44.4692	1	71.7541	1	71.7541	0	0	0	0	0	0	0	0	0	0	0	0;
	164	-0	0	33.8594	-33.8594	1	54.6345	1	54.6345	0	0	0	0	0	0	0	0	0	0	0	0;
	171	1.57448	0	16.1111	-16.1111	1	25.9963	1	25.9963	0	0	0	0	0	0	0	0	0	0	0	0;
	11	2.86587	0	16.1111	-16.1111	1	25.9963	1	25.9963	0	0	0	0	0	0	0	0	0	0	0	0;
	164	-0	0	16.1111	-16.1111	1	25.9963	1	25.9963	0	0	0	0	0	0	0	0	0	0	0	0;
	180	25.3623	0	15.7181	-15.7181	1	25.3623	1	25.3623	0	0	0	0	0	0	0	0	0	0	0	0;
	72	2.22532	0	15.7181	-15.7181	1	25.3623	1	25.3623	0	0	0	0	0	0	0	0	0	0	0	0;
	63	1.78793	0	15.7181	-15.7181	1	25.3623	1	25.3623	0	0	0	0	0	0	0	0	0	0	0	0;
	102	1.54395	0	15.7181	-15.7181	1	25.3623	1	25.3623	0	0	0	0	0	0	0	0	0	0	0	0;
	73	-0	0	15.3907	-15.3907	1	24.8339	1	24.8339	0	0	0	0	0	0	0	0	0	0	0	0;
	171	0.613967	0	15.3907	-15.3907	1	24.8339	1	24.8339	0	0	0	0	0	0	0	0	0	0	0	0;
	164	-0	0	15.3907	-15.3907	1	24.8339	1	24.8339	0	0	0	0	0	0	0	0	0	0	0	0;
	193	2.61073	0	13.8516	-13.8516	1	22.3505	1	22.3505	0	0	0	0	0	0	0	0	0	0	0	0;
	80	0	0	3.92953	-3.92953	1	6.34057	1	6.34057	0	0	0	0	0	0	0	0	0	0	0	0;
	52	0	0	1.15887	-1.15887	1	1.86992	1	1.86992	0	0	0	0	0	0	0	0	0	0	0	0;
	83	0	0	1.31003	-1.31003	1	2.11382	1	2.11382	0	0	0	0	0	0	0	0	0	0	0	0;
	88	0	0	3.72854	-3.72854	1	6.01626	1	6.01626	0	0	0	0	0	0	0	0	0	0	0	0;
	147	216	0	133.865	-133.865	1	216	1	216	0	0	0	0	0	0	0	0	0	0	0	0;
	147	152	0	94.2011	-94.2011	1	152	1	152	0	0	0	0	0	0	0	0	0	0	0	0;
	147	104	0	64.4534	-64.4534	1	104	1	104	0	0	0	0	0	0	0	0	0	0	0	0;
	147	68	0	42.1426	-42.1426	1	68	1	68	0	0	0	0	0	0	0	0	0	0	0	0;
	147	92	0	57.0165	-57.0165	1	92	1	92	0	0	0	0	0	0	0	0	0	0	0	0;
	147	61	0	37.8044	-37.8044	1	61	1	61	0	0	0	0	0	0	0	0	0	0	0	0;
	147	10	0	6.19744	-6.19744	1	10	1	10	0	0	0	0	0	0	0	0	0	0	0	0;
	83	62	0	38.4241	-38.4241	1	62	1	62	0	0	0	0	0	0	0	0	0	0	0	0;
	83	76	0	47.1006	-47.1006	1	76	1	76	0	0	0	0	0	0	0	0	0	0	0	0;
	18	54	0	33.4662	-33.4662	1	54	1	54	0	0	0	0	0	0	0	0	0	0	0	0;
	70	0	0	4785.67	-4785.67	1	7722	1	7722	0	0	0	0	0	0	0	0	0	0	0	0;
	49	0	0	325.986	-325.986	1	526	1	526	0	0	0	0	0	0	0	0	0	0	0	0;
	103	0	0	486.499	-486.499	1	785	1	785	0	0	0	0	0	0	0	0	0	0	0	0;
	13	0	0	151.837	-151.837	1	245	1	245	0	0	0	0	0	0	0	0	0	0	0	0;
	32	0	0	1680.13	-1680.13	1	2711	1	2711	0	0	0	0	0	0	0	0	0	0	0	0;
	139	0	0	244.799	-244.799	1	395	1	395	0	0	0	0	0	0	0	0	0	0	0	0;
	129	0	0	773.441	-773.441	1	1248	1	1248	0	0	0	0	0	0	0	0	0	0	0	0;
	141	0	0	290.66	-290.66	1	469	1	469	0	0	0	0	0	0	0	0	0	0	0	0;
	120	0	0	546.615	-546.615	1	882	1	882	0	0	0	0	0	0	0	0	0	0	0	0;
	146	0	0	396.636	-396.636	1	640	1	640	0	0	0	0	0	0	0	0	0	0	0	0;
	98	0	0	3363.97	-3363.97	1	5428	1	5428	0	0	0	0	0	0	0	0	0	0	0	0;
	67	0	0	1722.27	-1722.27	1	2779	1	2779	0	0	0	0	0	0	0	0	0	0	0	0;
	137	0	0	1497.92	-1497.92	1	2417	1	2417	0	0	0	0	0	0	0	0	0	0	0	0;
	177	0	0	544.136	-544.136	1	878	1	878	0	0	0	0	0	0	0	0	0	0	0	0;
	47	0	0	697.212	-697.212	1	1125	1	1125	0	0	0	0	0	0	0	0	0	0	0	0;
	129	699.019	0	475.964	-475.964	1	768	1	768	0	0	0	0	0	0	0	0	0	0	0	0;
	47	1023.95	0	697.212	-697.212	1	1125	1	1125	0	0	0	0	0	0	0	0	0	0	0	0;
	141	426.875	0	290.66	-290.66	1	469	1	469	0	0	0	0	0	0	0	0	0	0	0	0;
	98	4940.46	0	3363.97	-3363.97	1	5428	1	5428	0	0	0	0	0	0	0	0	0	0	0	0;
	67	2529.39	0	1722.27	-1722.27	1	2779	1	2779	0	0	0	0	0	0	0	0	0	0	0	0;
	137	2199.91	0	1497.92	-1497.92	1	2417	1	2417	0	0	0	0	0	0	0	0	0	0	0	0;
	70	1916.84	0	1305.18	-1305.18	1	2106	1	2106	0	0	0	0	0	0	0	0	0	0	0	0;
	177	799.138	0	544.136	-544.136	1	878	1	878	0	0	0	0	0	0	0	0	0	0	0	0;
	32	968.432	0	659.408	-659.408	1	1064	1	1064	0	0	0	0	0	0	0	0	0	0	0	0;
	32	1452.65	0	989.112	-989.112	1	1596	1	1596	0	0	0	0	0	0	0	0	0	0	0	0;
	103	714.492	0	486.499	-486.499	1	785	1	785	0	0	0	0	0	0	0	0	0	0	0	0;
	22	197.509	0	134.485	-134.485	1	217	1	217	0	0	0	0	0	0	0	0	0	0	0	0;
	70	5111.57	0	3480.48	-3480.48	1	5616	1	5616	0	0	0	0	0	0	0	0	0	0	0	0;
	146	582.515	0	396.636	-396.636	1	640	1	640	0	0	0	0	0	0	0	0	0	0	0	0;
	139	359.521	0	244.799	-244.799	1	395	1	395	0	0	0	0	0	0	0	0	0	0	0	0;
	13	222.994	0	151.837	-151.837	1	245	1	245	0	0	0	0	0	0	0	0	0	0	0	0;
	120	802.779	0	546.615	-546.615	1	882	1	882	0	0	0	0	0	0	0	0	0	0	0	0;
	49	478.755	0	325.986	-325.986	1	526	1	526	0	0	0	0	0	0	0	0	0	0	0	0;
	129	1.1e-06	0	297.477	-297.477	1	480	1	480	0	0	0	0	0	0	0	0	0	0	0	0;
	147	1.1e-06	0	34.0859	-34.0859	1	55	1	55	0	0	0	0	0	0	0	0	0	0	0	0;
	147	1.1e-06	0	37.8044	-37.8044	1	61	1	61	0	0	0	0	0	0	0	0	0	0	0	0;
	32	1.1e-06	0	31.607	-31.607	1	51	1	51	0	0	0	0	0	0	0	0	0	0	0	0;
];

%% branch data
%	fbus	tbus	r	x	b	rateA	rateB	rateC	ratio	angle	status	angmin	angmax
mpc.branch = [
	1	114	0.000134698	0.00444503	2.26049	23634.1	23634.1	23634.1	0	0	1	-360	360;
	72	88	0.000144601	0.00185916	0.0874551	7185.26	7185.26	7185.26	0	0	1	-360	360;
	173	41	9.31012e-05	0.00307234	1.33138	21816.8	21816.8	21816.8	0	0	1	-360	360;
	167	93	0.000498028	0.00640322	0.301208	7185.26	7185.26	7185.26	0	0	1	-360	360;
	93	122	0.000209466	0.00269314	0.126686	7185.26	7185.26	7185.26	0	0	1	-360	360;
	52	50	0.000212686	0.00273453	0.128633	7185.26	7185.26	7185.26	0	0	1	-360	360;
	88	72	0.000163092	0.0020969	0.221936	10777.9	10777.9	10777.9	0	0	1	-360	360;
	6	185	6.4015e-05	0.0021125	0.915435	21816.8	21816.8	21816.8	0	0	1	-360	360;
	185	35	8.67356e-05	0.00286227	1.24035	21816.8	21816.8	21816.8	0	0	1	-360	360;
	140	115	0.000800908	0.02643	11.4532	5960.96	5960.96	5960.96	0	0	1	-360	360;
	15	140	4.74675e-05	0.00156643	0.6788	21816.8	21816.8	21816.8	0	0	1	-360	360;
	115	150	9.4619e-05	0.00312243	1.35308	21816.8	21816.8	21816.8	0	0	1	-360	360;
	179	150	0.000662024	0.0218468	9.46715	7095.2	7095.2	7095.2	0	0	1	-360	360;
	181	179	0.000358223	0.0118213	5.1227	12793.9	12793.9	12793.9	0	0	1	-360	360;
	137	150	0.000809317	0.0267074	11.5735	5905.45	5905.45	5905.45	0	0	1	-360	360;
	15	115	0.000845132	0.0278893	12.0856	5682.19	5682.19	5682.19	0	0	1	-360	360;
	115	12	0.000638026	0.0210548	9.12396	7343.78	7343.78	7343.78	0	0	1	-360	360;
	46	155	0.00141062	0.0181365	0.853142	7185.26	7185.26	7185.26	0	0	1	-360	360;
	137	15	0.000484046	0.0159735	6.922	9547.94	9547.94	9547.94	0	0	1	-360	360;
	141	28	0.00132861	0.0170821	0.803545	7185.26	7185.26	7185.26	0	0	1	-360	360;
	28	99	0.0025821	0.0331985	1.56166	4547.28	4547.28	4547.28	0	0	1	-360	360;
	67	99	0.0019921	0.0256128	1.20483	5873.4	5873.4	5873.4	0	0	1	-360	360;
	196	198	0.000646633	0.0213389	9.24706	7252.41	7252.41	7252.41	0	0	1	-360	360;
	182	118	0.000243548	0.00313134	0.0368246	3592.63	3592.63	3592.63	0	0	1	-360	360;
	52	118	0.000278708	0.00358339	0.0421407	3592.63	3592.63	3592.63	0	0	1	-360	360;
	6	148	4.10894e-05	0.00135595	0.587591	21816.8	21816.8	21816.8	0	0	1	-360	360;
	11	6	0.000138061	0.00455601	1.97431	21816.8	21816.8	21816.8	0	0	1	-360	360;
	144	105	4.8087e-05	0.00158687	0.687658	21816.8	21816.8	21816.8	0	0	1	-360	360;
	39	2	1.52168e-05	0.000502153	0.217604	21816.8	21816.8	21816.8	0	0	1	-360	360;
	39	189	0.00070419	0.0232383	10.0701	6701.09	6701.09	6701.09	0	0	1	-360	360;
	103	37	0.000295807	0.00380323	0.178904	7185.26	7185.26	7185.26	0	0	1	-360	360;
	37	119	0.000389439	0.00500707	0.235533	7185.26	7185.26	7185.26	0	0	1	-360	360;
	25	119	0.000744188	0.00956813	0.450086	7185.26	7185.26	7185.26	0	0	1	-360	360;
	21	199	0.000167016	0.00214735	0.0252529	3592.63	3592.63	3592.63	0	0	1	-360	360;
	25	51	0.000764569	0.00983018	0.462412	7185.26	7185.26	7185.26	0	0	1	-360	360;
	25	51	0.00077429	0.00995516	0.468292	7185.26	7185.26	7185.26	0	0	1	-360	360;
	51	32	0.000435543	0.00559983	0.263417	7185.26	7185.26	7185.26	0	0	1	-360	360;
	111	26	0.000105138	0.00346955	1.5035	21816.8	21816.8	21816.8	0	0	1	-360	360;
	143	83	0.00121508	0.0156225	0.734882	7185.26	7185.26	7185.26	0	0	1	-360	360;
	100	42	0.0002379	0.00305872	0.143882	7185.26	7185.26	7185.26	0	0	1	-360	360;
	42	27	0.00031463	0.00404524	0.190288	7185.26	7185.26	7185.26	0	0	1	-360	360;
	100	56	0.000464233	0.00596871	0.280769	7185.26	7185.26	7185.26	0	0	1	-360	360;
	62	7	0.000167668	0.00553305	2.39771	21816.8	21816.8	21816.8	0	0	1	-360	360;
	97	164	0.00135627	0.0174377	0.820271	7185.26	7185.26	7185.26	0	0	1	-360	360;
	164	106	0.000679533	0.00873685	0.410982	7185.26	7185.26	7185.26	0	0	1	-360	360;
	106	86	0.000652784	0.00839293	0.394804	7185.26	7185.26	7185.26	0	0	1	-360	360;
	86	131	0.00136347	0.0175303	0.824629	7185.26	7185.26	7185.26	0	0	1	-360	360;
	131	43	0.000707743	0.00909956	0.428044	7185.26	7185.26	7185.26	0	0	1	-360	360;
	43	58	0.000210057	0.00270073	0.127043	7185.26	7185.26	7185.26	0	0	1	-360	360;
	189	22	0.000328366	0.0108361	4.69574	13934.6	13934.6	13934.6	0	0	1	-360	360;
	195	19	0.000184111	0.00607565	2.63284	21816.8	21816.8	21816.8	0	0	1	-360	360;
	195	8	0.000198869	0.00656267	2.84389	21816.8	21816.8	21816.8	0	0	1	-360	360;
	180	63	0.00125201	0.0160972	0.757214	7185.26	7185.26	7185.26	0	0	1	-360	360;
	180	63	0.0012544	0.016128	0.758662	7185.26	7185.26	7185.26	0	0	1	-360	360;
	195	90	7.46063e-05	0.00246201	1.06689	21816.8	21816.8	21816.8	0	0	1	-360	360;
	195	173	7.30079e-05	0.00240926	1.04404	21816.8	21816.8	21816.8	0	0	1	-360	360;
	160	60	4.87138e-05	0.00160756	0.696623	21816.8	21816.8	21816.8	0	0	1	-360	360;
	60	190	0.000133726	0.00441296	1.91233	21816.8	21816.8	21816.8	0	0	1	-360	360;
	130	97	9.01729e-05	0.00115937	0.0545367	7185.26	7185.26	7185.26	0	0	1	-360	360;
	95	130	0.0013712	0.0176297	0.829301	7185.26	7185.26	7185.26	0	0	1	-360	360;
	85	108	0.000398409	0.0051224	0.240958	7185.26	7185.26	7185.26	0	0	1	-360	360;
	108	97	0.000441792	0.00568019	0.267197	7185.26	7185.26	7185.26	0	0	1	-360	360;
	149	85	0.000365569	0.00470018	0.221097	7185.26	7185.26	7185.26	0	0	1	-360	360;
	33	26	0.000165618	0.0054654	2.36839	21816.8	21816.8	21816.8	0	0	1	-360	360;
	195	19	0.000184408	0.00608547	2.6371	21816.8	21816.8	21816.8	0	0	1	-360	360;
	40	83	0.0017512	0.0225154	0.264782	3592.63	3592.63	3592.63	0	0	1	-360	360;
	144	105	4.7909e-05	0.001581	0.685114	21816.8	21816.8	21816.8	0	0	1	-360	360;
	16	112	0.00138096	0.0177552	0.208802	3592.63	3592.63	3592.63	0	0	1	-360	360;
	41	184	0.000406789	0.013424	5.81721	11299.5	11299.5	11299.5	0	0	1	-360	360;
	165	44	9.67991e-05	0.00124456	0.0585442	7185.26	7185.26	7185.26	0	0	1	-360	360;
	45	109	0.000199583	0.00256607	0.120708	7185.26	7185.26	7185.26	0	0	1	-360	360;
	14	45	0.000220778	0.00283857	0.133527	7185.26	7185.26	7185.26	0	0	1	-360	360;
	74	45	0.000944662	0.0121457	0.571333	7185.26	7185.26	7185.26	0	0	1	-360	360;
	74	165	0.000499037	0.00641619	0.301818	7185.26	7185.26	7185.26	0	0	1	-360	360;
	44	14	0.000135378	0.00174057	0.0818765	7185.26	7185.26	7185.26	0	0	1	-360	360;
	109	23	0.000199677	0.00256727	0.120765	7185.26	7185.26	7185.26	0	0	1	-360	360;
	23	145	0.000109598	0.00140911	0.0662849	7185.26	7185.26	7185.26	0	0	1	-360	360;
	12	59	0.000802275	0.0264751	11.4728	5951.85	5951.85	5951.85	0	0	1	-360	360;
	167	161	0.0001285	0.00165215	0.0194293	3592.63	3592.63	3592.63	0	0	1	-360	360;
	167	161	0.000353579	0.00454602	0.0534613	3592.63	3592.63	3592.63	0	0	1	-360	360;
	167	172	0.00395289	0.0508229	2.39071	3005.26	3005.26	3005.26	0	0	1	-360	360;
	167	93	0.000359419	0.0046211	0.217377	7185.26	7185.26	7185.26	0	0	1	-360	360;
	167	172	0.0039518	0.0508088	2.39005	3006.06	3006.06	3006.06	0	0	1	-360	360;
	145	122	0.000183748	0.00236248	0.111131	7185.26	7185.26	7185.26	0	0	1	-360	360;
	41	189	0.000504351	0.0166436	7.21237	9178.12	9178.12	9178.12	0	0	1	-360	360;
	63	178	0.000753615	0.00968934	0.455787	7185.26	7185.26	7185.26	0	0	1	-360	360;
	183	90	4.9715e-05	0.0016406	0.71094	21816.8	21816.8	21816.8	0	0	1	-360	360;
	188	121	0.000451525	0.00580532	0.273083	7185.26	7185.26	7185.26	0	0	1	-360	360;
	121	166	0.000599342	0.00770582	0.362483	7185.26	7185.26	7185.26	0	0	1	-360	360;
	166	17	0.000827695	0.0106418	0.500591	7185.26	7185.26	7185.26	0	0	1	-360	360;
	77	178	0.000374091	0.00480974	0.226251	7185.26	7185.26	7185.26	0	0	1	-360	360;
	48	77	0.000188041	0.00241767	0.113727	7185.26	7185.26	7185.26	0	0	1	-360	360;
	178	149	0.00059292	0.00762325	0.358599	7185.26	7185.26	7185.26	0	0	1	-360	360;
	81	87	8.26895e-05	0.00106315	0.112524	10777.9	10777.9	10777.9	0	0	1	-360	360;
	148	160	3.7503e-05	0.0012376	0.536305	21816.8	21816.8	21816.8	0	0	1	-360	360;
	104	160	0.000156552	0.00516621	2.23874	21816.8	21816.8	21816.8	0	0	1	-360	360;
	190	184	2.43383e-05	0.000803163	0.348045	21816.8	21816.8	21816.8	0	0	1	-360	360;
	41	11	0.000492008	0.0162363	7.03587	9399.2	9399.2	9399.2	0	0	1	-360	360;
	57	40	0.000340741	0.00438095	0.0515201	3592.63	3592.63	3592.63	0	0	1	-360	360;
	38	110	0.000402988	0.00518128	0.060932	3592.63	3592.63	3592.63	0	0	1	-360	360;
	138	38	0.000105267	0.00135344	0.0636658	7185.26	7185.26	7185.26	0	0	1	-360	360;
	172	47	0.00400871	0.0515406	2.42447	2965.13	2965.13	2965.13	0	0	1	-360	360;
	172	192	0.000860572	0.0110645	0.520475	7185.26	7185.26	7185.26	0	0	1	-360	360;
	192	24	0.00108838	0.0139935	0.658254	7185.26	7185.26	7185.26	0	0	1	-360	360;
	176	195	0.00104284	0.0344139	14.913	4746.22	4746.22	4746.22	0	0	1	-360	360;
	157	138	0.000275338	0.00354006	0.0416312	3592.63	3592.63	3592.63	0	0	1	-360	360;
	7	187	0.00024714	0.0081556	3.53417	18446.3	18446.3	18446.3	0	0	1	-360	360;
	187	185	0.000121683	0.00401553	1.7401	21816.8	21816.8	21816.8	0	0	1	-360	360;
	24	158	0.000534336	0.00687004	0.323167	7185.26	7185.26	7185.26	0	0	1	-360	360;
	4	65	0.000320561	0.0041215	0.193876	7185.26	7185.26	7185.26	0	0	1	-360	360;
	65	174	0.000217991	0.00280275	0.131841	7185.26	7185.26	7185.26	0	0	1	-360	360;
	174	20	0.000194562	0.00250151	0.117671	7185.26	7185.26	7185.26	0	0	1	-360	360;
	58	4	0.000109635	0.00140959	0.0663071	7185.26	7185.26	7185.26	0	0	1	-360	360;
	172	47	0.00400089	0.0514401	2.41974	2970.68	2970.68	2970.68	0	0	1	-360	360;
	39	2	1.46308e-05	0.000482818	0.209226	21816.8	21816.8	21816.8	0	0	1	-360	360;
	75	30	0.000127723	0.00164215	0.077247	7185.26	7185.26	7185.26	0	0	1	-360	360;
	94	197	0.000122029	0.00156895	0.0738036	7185.26	7185.26	7185.26	0	0	1	-360	360;
	20	193	9.90296e-05	0.00127324	0.0598932	7185.26	7185.26	7185.26	0	0	1	-360	360;
	193	94	0.000178376	0.0022934	0.107882	7185.26	7185.26	7185.26	0	0	1	-360	360;
	197	75	0.000424671	0.00546006	0.256842	7185.26	7185.26	7185.26	0	0	1	-360	360;
	5	55	0.00107444	0.0138142	0.162456	3592.63	3592.63	3592.63	0	0	1	-360	360;
	55	5	0.00107272	0.0137921	0.162196	3592.63	3592.63	3592.63	0	0	1	-360	360;
	117	156	0.00422716	0.0543491	0.639147	2769.71	2769.71	2769.71	0	0	1	-360	360;
	156	29	0.00701195	0.0901537	1.06021	1686.81	1686.81	1686.81	0	0	1	-360	360;
	170	182	7.31498e-05	0.000940497	0.0442411	7185.26	7185.26	7185.26	0	0	1	-360	360;
	182	170	9.05342e-05	0.00116401	0.0547552	7185.26	7185.26	7185.26	0	0	1	-360	360;
	81	170	0.000172497	0.00221782	0.104326	7185.26	7185.26	7185.26	0	0	1	-360	360;
	182	126	9.32169e-05	0.0011985	0.0563777	7185.26	7185.26	7185.26	0	0	1	-360	360;
	81	126	0.000164485	0.0021148	0.0994806	7185.26	7185.26	7185.26	0	0	1	-360	360;
	10	37	0.00025027	0.00321776	0.151364	7185.26	7185.26	7185.26	0	0	1	-360	360;
	124	153	9.47974e-05	0.00121882	0.0573336	7185.26	7185.26	7185.26	0	0	1	-360	360;
	81	153	0.000464231	0.00596869	0.280768	7185.26	7185.26	7185.26	0	0	1	-360	360;
	27	81	0.000207173	0.00266365	0.125298	7185.26	7185.26	7185.26	0	0	1	-360	360;
	27	153	0.000150492	0.0019349	0.0910178	7185.26	7185.26	7185.26	0	0	1	-360	360;
	199	21	9.73386e-05	0.0012515	0.0588705	7185.26	7185.26	7185.26	0	0	1	-360	360;
	112	54	0.000969366	0.0124633	0.146568	3592.63	3592.63	3592.63	0	0	1	-360	360;
	21	54	0.000641497	0.00824782	0.0969945	3592.63	3592.63	3592.63	0	0	1	-360	360;
	21	54	0.000321018	0.00412737	0.194152	7185.26	7185.26	7185.26	0	0	1	-360	360;
	176	195	0.00105093	0.0346806	15.0286	4716.22	4716.22	4716.22	0	0	1	-360	360;
	123	21	0.000920254	0.0118318	0.556571	7185.26	7185.26	7185.26	0	0	1	-360	360;
	198	176	0.000481624	0.0158936	6.88737	9594.17	9594.17	9594.17	0	0	1	-360	360;
	87	163	0.000178379	0.00229344	0.026971	3592.63	3592.63	3592.63	0	0	1	-360	360;
	163	127	0.000304258	0.00391189	0.0460039	3592.63	3592.63	3592.63	0	0	1	-360	360;
	127	157	0.000299719	0.00385353	0.0453176	3592.63	3592.63	3592.63	0	0	1	-360	360;
	59	133	0.00047419	0.0156483	6.78106	9739.1	9739.1	9739.1	0	0	1	-360	360;
	59	62	0.000492505	0.0162527	7.04298	9390.08	9390.08	9390.08	0	0	1	-360	360;
	84	196	0.000690727	0.022794	9.8776	6821.47	6821.47	6821.47	0	0	1	-360	360;
	84	196	0.000690173	0.0227757	9.86968	6826.52	6826.52	6826.52	0	0	1	-360	360;
	84	196	0.000690832	0.0227975	9.87912	6820.5	6820.5	6820.5	0	0	1	-360	360;
	159	66	0.000320371	0.00411906	0.0484402	3592.63	3592.63	3592.63	0	0	1	-360	360;
	55	159	0.000345691	0.0044446	0.0522686	3592.63	3592.63	3592.63	0	0	1	-360	360;
	136	22	0.000553897	0.0182786	7.9209	8391.98	8391.98	8391.98	0	0	1	-360	360;
	66	152	0.000411529	0.00529109	0.0622234	3592.63	3592.63	3592.63	0	0	1	-360	360;
	181	179	0.000367992	0.0121437	5.2624	12461.2	12461.2	12461.2	0	0	1	-360	360;
	181	179	0.000368218	0.0121512	5.26564	12453.7	12453.7	12453.7	0	0	1	-360	360;
	136	22	0.000553671	0.0182711	7.91766	8395.25	8395.25	8395.25	0	0	1	-360	360;
	150	136	0.000689458	0.0227521	9.85947	6833.06	6833.06	6833.06	0	0	1	-360	360;
	115	12	0.000637972	0.0210531	9.1232	7344.36	7344.36	7344.36	0	0	1	-360	360;
	31	64	0.000825279	0.0106107	0.124782	3592.63	3592.63	3592.63	0	0	1	-360	360;
	107	31	0.00113371	0.0145763	0.171418	3592.63	3592.63	3592.63	0	0	1	-360	360;
	116	107	0.000852219	0.0109571	0.128856	3592.63	3592.63	3592.63	0	0	1	-360	360;
	151	116	0.00353682	0.0454733	0.534768	3304.57	3304.57	3304.57	0	0	1	-360	360;
	10	37	0.000312688	0.00402027	0.189114	7185.26	7185.26	7185.26	0	0	1	-360	360;
	177	99	8.53037e-05	0.00109676	0.0515918	7185.26	7185.26	7185.26	0	0	1	-360	360;
	93	34	0.000205544	0.00264271	0.124313	7185.26	7185.26	7185.26	0	0	1	-360	360;
	158	92	0.000718219	0.00923425	0.43438	7185.26	7185.26	7185.26	0	0	1	-360	360;
	92	16	0.000778943	0.010015	0.117776	3592.63	3592.63	3592.63	0	0	1	-360	360;
	12	59	0.000758019	0.0250146	10.8399	6264.55	6264.55	6264.55	0	0	1	-360	360;
	59	7	0.000644211	0.021259	9.21241	7277.87	7277.87	7277.87	0	0	1	-360	360;
	12	136	0.000177296	0.00585076	2.53538	21816.8	21816.8	21816.8	0	0	1	-360	360;
	140	115	0.000800916	0.0264302	11.4533	5960.91	5960.91	5960.91	0	0	1	-360	360;
	70	46	0.000347629	0.00446951	0.210246	7185.26	7185.26	7185.26	0	0	1	-360	360;
	46	70	0.000344171	0.00442506	0.208155	7185.26	7185.26	7185.26	0	0	1	-360	360;
	119	37	0.0004287	0.00551186	0.259278	7185.26	7185.26	7185.26	0	0	1	-360	360;
	145	122	0.000232847	0.00299375	0.140826	7185.26	7185.26	7185.26	0	0	1	-360	360;
	136	22	0.000565677	0.0186674	8.08936	8225.83	8225.83	8225.83	0	0	1	-360	360;
	22	41	0.000682622	0.0225265	9.7617	6896.33	6896.33	6896.33	0	0	1	-360	360;
	120	132	0.00312672	0.0402007	0.472761	3592.63	3592.63	3592.63	0	0	1	-360	360;
	115	12	0.000700046	0.0231015	10.0109	6737.63	6737.63	6737.63	0	0	1	-360	360;
	150	136	0.000734149	0.0242269	10.4986	6449.82	6449.82	6449.82	0	0	1	-360	360;
	150	78	0.000655292	0.0216246	9.37088	7163.02	7163.02	7163.02	0	0	1	-360	360;
	137	179	0.000321337	0.0106041	4.59522	14234.3	14234.3	14234.3	0	0	1	-360	360;
	22	41	0.000682966	0.0225379	9.76663	6893.11	6893.11	6893.11	0	0	1	-360	360;
	129	186	0.00134171	0.0172505	0.811467	7185.26	7185.26	7185.26	0	0	1	-360	360;
	179	150	0.000662312	0.0218563	9.47126	7092.33	7092.33	7092.33	0	0	1	-360	360;
	9	129	0.00474257	0.0609759	0.717078	2472.42	2472.42	2472.42	0	0	1	-360	360;
	55	159	0.000346739	0.00445808	0.0524271	3592.63	3592.63	3592.63	0	0	1	-360	360;
	152	134	0.00417306	0.0536536	0.630967	2805.21	2805.21	2805.21	0	0	1	-360	360;
	152	134	0.00417252	0.0536467	0.630886	2805.56	2805.56	2805.56	0	0	1	-360	360;
	159	66	0.00032083	0.00412495	0.0485095	3592.63	3592.63	3592.63	0	0	1	-360	360;
	66	152	0.00041044	0.00527708	0.0620586	3592.63	3592.63	3592.63	0	0	1	-360	360;
	196	198	0.000646588	0.0213374	9.24641	7252.89	7252.89	7252.89	0	0	1	-360	360;
	196	198	0.000646659	0.0213397	9.24742	7252.15	7252.15	7252.15	0	0	1	-360	360;
	175	101	1.13819e-05	0.000375603	0.162765	21816.8	21816.8	21816.8	0	0	1	-360	360;
	176	183	0.000926706	0.0305813	13.2522	5242.78	5242.78	5242.78	0	0	1	-360	360;
	12	59	0.000758111	0.0250177	10.8412	6263.86	6263.86	6263.86	0	0	1	-360	360;
	8	36	0.000118215	0.0039011	1.69051	21816.8	21816.8	21816.8	0	0	1	-360	360;
	101	53	3.97816e-05	0.00131279	0.568889	21816.8	21816.8	21816.8	0	0	1	-360	360;
	135	175	4.26565e-05	0.00140766	0.610001	21816.8	21816.8	21816.8	0	0	1	-360	360;
	53	26	0.000135979	0.00448732	1.94455	21816.8	21816.8	21816.8	0	0	1	-360	360;
	79	8	1.11758e-05	0.000368801	0.159817	21816.8	21816.8	21816.8	0	0	1	-360	360;
	8	79	1.14896e-05	0.000379155	0.164304	21816.8	21816.8	21816.8	0	0	1	-360	360;
	36	111	4.10604e-05	0.00135499	0.587176	21816.8	21816.8	21816.8	0	0	1	-360	360;
	144	33	3.07838e-05	0.00101587	0.440218	21816.8	21816.8	21816.8	0	0	1	-360	360;
	96	135	3.67415e-05	0.00121247	0.525415	21816.8	21816.8	21816.8	0	0	1	-360	360;
	19	154	2.06223e-05	0.000680534	0.294905	21816.8	21816.8	21816.8	0	0	1	-360	360;
	19	154	2.05619e-05	0.000678544	0.294042	21816.8	21816.8	21816.8	0	0	1	-360	360;
	154	144	8.99674e-05	0.00296892	1.28656	21816.8	21816.8	21816.8	0	0	1	-360	360;
	154	144	9.00496e-05	0.00297164	1.28774	21816.8	21816.8	21816.8	0	0	1	-360	360;
	138	143	0.000617524	0.0079396	0.0933699	3592.63	3592.63	3592.63	0	0	1	-360	360;
	49	10	0.000902786	0.0116073	0.546006	7185.26	7185.26	7185.26	0	0	1	-360	360;
	73	121	0.000613856	0.00789243	0.0928151	3592.63	3592.63	3592.63	0	0	1	-360	360;
	92	47	0.00154714	0.0198918	0.233928	3592.63	3592.63	3592.63	0	0	1	-360	360;
	89	194	0.00107547	0.0138275	0.162612	3592.63	3592.63	3592.63	0	0	1	-360	360;
	171	174	0.00126873	0.0163123	0.191833	3592.63	3592.63	3592.63	0	0	1	-360	360;
	128	97	0.00175783	0.0226006	1.06314	6648.6	6648.6	6648.6	0	0	1	-360	360;
	151	91	0.00217497	0.0279638	1.31542	5384.92	5384.92	5384.92	0	0	1	-360	360;
	5	102	0.00552425	0.0710261	0.835268	2128.12	2128.12	2128.12	0	0	1	-360	360;
	102	194	0.00322769	0.0414989	0.488028	3592.63	3592.63	3592.63	0	0	1	-360	360;
	194	167	0.00513897	0.0660724	0.777013	2284.61	2284.61	2284.61	0	0	1	-360	360;
	146	132	0.0115588	0.148613	1.74769	1052.01	1052.01	1052.01	0	0	1	-360	360;
	69	169	0.000114123	0.0014673	0.0993164	8619.05	8619.05	8619.05	0	0	1	-360	360;
	139	13	0.00129218	0.0166138	0.195378	3592.63	3592.63	3592.63	0	0	1	-360	360;
	3	29	0.00526179	0.0676516	0.795584	2232.21	2232.21	2232.21	0	0	1	-360	360;
	25	119	0.000734818	0.00944766	0.444419	7185.26	7185.26	7185.26	0	0	1	-360	360;
	48	63	0.000203881	0.00262132	0.123307	7185.26	7185.26	7185.26	0	0	1	-360	360;
	113	42	0.000228091	0.00293259	0.0344874	3592.63	3592.63	3592.63	0	0	1	-360	360;
	140	15	4.85722e-05	0.00160288	0.694598	21816.8	21816.8	21816.8	0	0	1	-360	360;
	160	68	2.64074e-05	0.000871443	0.377634	21816.8	21816.8	21816.8	0	0	1	-360	360;
	133	22	0.00087265	0.0287974	12.4792	5524	5524	5524	0	0	1	-360	360;
	50	88	0.000169835	0.00218359	0.102716	7185.26	7185.26	7185.26	0	0	1	-360	360;
	95	178	0.000347587	0.00446897	0.210221	7185.26	7185.26	7185.26	0	0	1	-360	360;
	160	60	3.05902e-05	0.00100948	0.43745	21816.8	21816.8	21816.8	0	0	1	-360	360;
	160	148	2.04111e-05	0.000673566	0.291885	21816.8	21816.8	21816.8	0	0	1	-360	360;
	142	104	1.68543e-05	0.000556191	2.16919	65450.3	65450.3	65450.3	0	0	1	-360	360;
	2	173	0.00115247	0.0380314	16.4806	4380.16	4380.16	4380.16	0	0	1	-360	360;
	2	176	0.000158144	0.00521877	2.26151	21816.8	21816.8	21816.8	0	0	1	-360	360;
	80	146	0.00124389	0.0159929	0.188077	3592.63	3592.63	3592.63	0	0	1	-360	360;
	198	176	0.0004801	0.0158433	6.86558	9623.5	9623.5	9623.5	0	0	1	-360	360;
	198	39	0.000515482	0.0170109	7.37156	8988.02	8988.02	8988.02	0	0	1	-360	360;
	83	74	0.000147217	0.00189279	0.0890371	7185.26	7185.26	7185.26	0	0	1	-360	360;
	39	189	0.000741885	0.0244822	10.6092	6388.4	6388.4	6388.4	0	0	1	-360	360;
	27	82	0.0003051	0.00392272	0.184525	7185.26	7185.26	7185.26	0	0	1	-360	360;
	82	100	0.000147177	0.00189228	0.0890131	7185.26	7185.26	7185.26	0	0	1	-360	360;
	126	81	0.000274192	0.00352532	0.165831	7185.26	7185.26	7185.26	0	0	1	-360	360;
	126	52	0.00029171	0.00375056	0.176427	7185.26	7185.26	7185.26	0	0	1	-360	360;
	93	122	0.000160326	0.00206134	0.0969654	7185.26	7185.26	7185.26	0	0	1	-360	360;
	71	125	0.000106427	0.00136834	0.064367	7185.26	7185.26	7185.26	0	0	1	-360	360;
	125	188	0.000404267	0.00519772	0.244501	7185.26	7185.26	7185.26	0	0	1	-360	360;
	167	61	0.00014468	0.00186017	0.0875027	7185.26	7185.26	7185.26	0	0	1	-360	360;
	61	71	0.00013173	0.00169368	0.0796707	7185.26	7185.26	7185.26	0	0	1	-360	360;
	184	142	2.56873e-05	0.000847682	0.367337	21816.8	21816.8	21816.8	0	0	1	-360	360;
	200	172	0.00139249	0.0179034	0.842177	7185.26	7185.26	7185.26	0	0	1	-360	360;
	168	3	0.000785914	0.0101046	0.11883	3592.63	3592.63	3592.63	0	0	1	-360	360;
	13	168	0.0019585	0.0251807	0.296126	3592.63	3592.63	3592.63	0	0	1	-360	360;
	51	32	0.000373251	0.00479894	0.225743	7185.26	7185.26	7185.26	0	0	1	-360	360;
	191	82	9.4812e-05	0.00121901	0.0573424	7185.26	7185.26	7185.26	0	0	1	-360	360;
	78	136	3.13011e-05	0.00103294	0.447615	21816.8	21816.8	21816.8	0	0	1	-360	360;
	110	57	0.000427457	0.00549588	0.0646316	3592.63	3592.63	3592.63	0	0	1	-360	360;
	35	96	2.09939e-05	0.000692798	0.300219	21816.8	21816.8	21816.8	0	0	1	-360	360;
	147	100	0.000626972	0.00806106	0.379193	7185.26	7185.26	7185.26	0	0	1	-360	360;
	147	100	0.000592603	0.00761918	0.358407	7185.26	7185.26	7185.26	0	0	1	-360	360;
	133	104	7.62934e-05	0.00251768	1.09102	21816.8	21816.8	21816.8	0	0	1	-360	360;
	68	133	0.000214873	0.00709081	3.07275	21191.4	21191.4	21191.4	0	0	1	-360	360;
	68	7	6.64388e-05	0.00219248	0.950096	21816.8	21816.8	21816.8	0	0	1	-360	360;
	17	200	0.000576686	0.00741453	0.34878	7185.26	7185.26	7185.26	0	0	1	-360	360;
	87	81	0.000110589	0.00142186	0.15049	10777.9	10777.9	10777.9	0	0	1	-360	360;
	81	87	0.000329923	0.00424187	0.0498844	3592.63	3592.63	3592.63	0	0	1	-360	360;
	81	87	0.000109765	0.00141126	0.149368	10777.9	10777.9	10777.9	0	0	1	-360	360;
	45	162	0.000281929	0.0036248	0.170511	7185.26	7185.26	7185.26	0	0	1	-360	360;
	162	145	0.000220607	0.00283638	0.133424	7185.26	7185.26	7185.26	0	0	1	-360	360;
	105	6	0.000239139	0.00789159	3.41976	19057.6	19057.6	19057.6	0	0	1	-360	360;
	105	185	0.000304453	0.0100469	4.35377	15011.1	15011.1	15011.1	0	0	1	-360	360;
	98	196	0.000418159	0.0137993	5.9798	11000.5	11000.5	11000.5	0	0	1	-360	360;
	98	196	0.000418344	0.0138054	5.98245	10995.7	10995.7	10995.7	0	0	1	-360	360;
	98	196	0.000418529	0.0138115	5.9851	10991	10991	10991	0	0	1	-360	360;
	88	185	0.000166667	0.005	0	100000	100000	100000	1	0	1	-360	360;
	161	173	0.000166667	0.005	0	100000	100000	100000	1	0	1	-360	360;
	52	6	0.000166667	0.005	0	100000	100000	100000	1	0	1	-360	360;
	46	140	0.000166667	0.005	0	100000	100000	100000	1	0	1	-360	360;
	132	198	0.000166667	0.005	0	100000	100000	100000	1	0	1	-360	360;
	37	39	0.000166667	0.005	0	100000	100000	100000	1	0	1	-360	360;
	21	176	0.000166667	0.005	0	100000	100000	100000	1	0	1	-360	360;
	18	187	0.000166667	0.005	0	100000	100000	100000	1	0	1	-360	360;
	187	1	0.000166667	0.005	0	100000	100000	100000	1	0	1	-360	360;
	100	7	0.000166667	0.005	0	100000	100000	100000	1	0	1	-360	360;
	180	195	0.000166667	0.005	0	100000	100000	100000	1	0	1	-360	360;
	122	41	0.000166667	0.005	0	100000	100000	100000	1	0	1	-360	360;
	81	160	0.000166667	0.005	0	100000	100000	100000	1	0	1	-360	360;
	67	181	0.000166667	0.005	0	100000	100000	100000	1	0	1	-360	360;
	29	196	0.000166667	0.005	0	100000	100000	100000	1	0	1	-360	360;
	64	12	0.000166667	0.005	0	100000	100000	100000	1	0	1	-360	360;
	70	15	0.000166667	0.005	0	100000	100000	100000	1	0	1	-360	360;
	186	115	0.000166667	0.005	0	100000	100000	100000	1	0	1	-360	360;
	76	84	0.000166667	0.005	0	100000	100000	100000	1	0	1	-360	360;
	126	148	0.000166667	0.005	0	100000	100000	100000	1	0	1	-360	360;
	163	60	0.000166667	0.005	0	100000	100000	100000	1	0	1	-360	360;
	128	69	0.000166667	0.005	0	100000	100000	100000	1	0	1	-360	360;
];

%% generator cost data
%	2	startup	shutdown	n	c(n-1)	...	c0
mpc.gencost = [
	2	0	0	3	0.0001	0	0;
	2	0	0	3	0.0001	0	0;
	2	0	0	3	0.0001	0	0;
	2	0	0	3	0.0001	0	0;
	2	0	0	3	0.0001	0	0;
	2	0	0	3	0.0001	0	0;
	2	0	0	3	0.0001	0	0;
	2	0	0	3	0.0001	0	0;
	2	0	0	3	0.0001	0	0;
	2	0	0	3	0.0001	0	0;
	2	0	0	3	0.0001	0	0;
	2	0	0	3	0.0001	0	0;
	2	0	0	3	0.0001	0	0;
	2	0	0	3	0.0001	0	0;
	2	0	0	3	0.0001	0	0;
	2	0	0	3	0.0001	0	0;
	2	0	0	3	0.0001	0	0;
	2	0	0	3	0.0001	0	0;
	2	0	0	3	0.0001	0	0;
	2	0	0	3	0.0001	0	0;
	2	0	0	3	0.0001	0	0;
	2	0	0	3	0.0001	0	0;
	2	0	0	3	0.0001	0	0;
	2	0	0	3	0.0001	0	0;
	2	0	0	3	0.0001	0	0;
	2	0	0	3	0.0001	-0.3	0;
	2	0	0	3	0.0001	-0.1	0;
	2	0	0	3	0.0001	-0.1	0;
	2	0	0	3	0.0001	-0.1	0;
	2	0	0	3	0.0001	-0.1	0;
	2	0	0	3	0.0001	-0.1	0;
	2	0	0	3	0.0001	-0.1	0;
	2	0	0	3	0.0001	-0.1	0;
	2	0	0	3	0.0001	-0.1	0;
	2	0	0	3	0.0001	-0.1	0;
	2	0	0	3	0.0001	-0.1	0;
	2	0	0	3	0.0001	-0.1	0;
	2	0	0	3	0.0001	-0.1	0;
	2	0	0	3	0.0001	-0.1	0;
	2	0	0	3	0.0001	-0.1	0;
	2	0	0	3	0.0001	-0.1	0;
	2	0	0	3	0.0001	-0.1	0;
	2	0	0	3	0.0001	-0.1	0;
	2	0	0	3	0.0001	-0.1	0;
	2	0	0	3	0.0001	-0.1	0;
	2	0	0	3	0.0001	-0.1	0;
	2	0	0	3	0.0001	-0.1	0;
	2	0	0	3	0.0001	-0.1	0;
	2	0	0	3	0.0001	-0.1	0;
	2	0	0	3	0.0001	-0.1	0;
	2	0	0	3	0.0001	-0.1	0;
	2	0	0	3	0.0001	-0.1	0;
	2	0	0	3	0.0001	-0.1	0;
	2	0	0	3	0.0001	-0.1	0;
	2	0	0	3	0.0001	-0.1	0;
	2	0	0	3	0.0001	-0.1	0;
	2	0	0	3	0.0001	-0.1	0;
	2	0	0	3	0.0001	-0.1	0;
	2	0	0	3	0.0001	-0.1	0;
	2	0	0	3	0.0001	0.01	0;
	2	0	0	3	0.0001	0.01	0;
	2	0	0	3	0.0001	0.01	0;
	2	0	0	3	0.0001	0	0;
	2	0	0	3	0.0001	0	0;
	2	0	0	3	0.0001	0	0;
	2	0	0	3	0.0001	0	0;
	2	0	0	3	0.0001	0	0;
	2	0	0	3	0.0001	0	0;
	2	0	0	3	0.0001	0	0;
	2	0	0	3	0.0001	0	0;
	2	0	0	3	0.0001	0	0;
	2	0	0	3	0.0001	0	0;
	2	0	0	3	0.0001	0	0;
	2	0	0	3	0.0001	0	0;
	2	0	0	3	0.0001	0	0;
	2	0	0	3	0.0001	0	0;
	2	0	0	3	0.0001	0	0;
	2	0	0	3	0.0001	0	0;
	2	0	0	3	0.0001	0	0;
	2	0	0	3	0.0001	0	0;
	2	0	0	3	0.0001	0	0;
	2	0	0	3	0.0001	0	0;
	2	0	0	3	0.0001	0	0;
	2	0	0	3	0.0001	0	0;
	2	0	0	3	0.0001	0	0;
	2	0	0	3	0.0001	0	0;
	2	0	0	3	0.0001	0	0;
	2	0	0	3	0.0001	0	0;
	2	0	0	3	0.0001	0	0;
	2	0	0	3	0.0001	0	0;
	2	0	0	3	0.0001	0	0;
	2	0	0	3	0.0001	0	0;
	2	0	0	3	0.0001	0	0;
	2	0	0	3	0.0001	0	0;
	2	0	0	3	0.0001	0	0;
	2	0	0	3	0.0001	0	0;
	2	0	0	3	0.0001	0	0;
	2	0	0	3	0.0001	0	0;
	2	0	0	3	0.0001	0	0;
	2	0	0	3	0.0001	0	0;
	2	0	0	3	0.0001	0	0;
	2	0	0	3	0.0001	0	0;
	2	0	0	3	0.0001	0	0;
	2	0	0	3	0.0001	0	0;
	2	0	0	3	0.0001	0	0;
	2	0	0	3	0.0001	0	0;
	2	0	0	3	0.0001	0	0;
	2	0	0	3	0.0001	0	0;
	2	0	0	3	0.0001	0	0;
];
